39
	Energy:     369.2118209
C        100.13169       24.07153       -0.03923
C        100.84306       22.91456       -0.04307
C         99.92458       21.88837       -0.02349
C         98.78957       23.71577       -0.01641
N         98.64988       22.36032       -0.02109
C         97.79105       24.60836        0.01432
C         96.38309       24.20901        0.04701
N         95.91422       22.93818        0.02847
C         94.56291       23.07385        0.03659
C         95.34035       25.12009        0.08849
C         94.18969       24.39748        0.08209
C         93.68231       22.08997       -0.00198
C         94.06611       20.69862       -0.04827
N         95.33209       20.22803       -0.04480
C         93.86411       18.51839       -0.08611
C         93.14830       19.67552       -0.08255
C         97.57845       18.30896        0.01923
N         98.01121       19.59943        0.01480
C         99.35996       19.50903        0.02727
C         99.77794       18.19826        0.05918
C         98.65364       17.43255        0.05549
C        100.29178       20.61683       -0.00157
C         96.29873       17.91733       -0.01441
C         95.19959       18.88140       -0.05339
H        100.55629       25.06774       -0.04486
H        101.92291       22.82897       -0.05230
C         98.09280       26.03350        0.01789
H         95.40679       26.19985        0.11394
H         93.18256       24.79518        0.10166
H         92.62037       22.32743        0.00432
H         93.45164       17.51810       -0.10153
H         92.06985       19.76618       -0.09425
H        100.79907       17.83910        0.07720
H         98.62931       16.35000        0.07043
H        101.35417       20.37891       -0.00120
C         95.96767       16.49994       -0.00744
C         95.68263       15.32802       -0.00199
C         98.33231       27.21565        0.02109
Zn        96.98397       21.28056       -0.01982
